src/test/resources/ieeefiles/caseSJ.txt
 00/00/01                      100    0    0 0
BUS DATA FOLLOWS                    12 ITEMS
   1 CQ2T35KV     1   1  0 1.0580  -0.07   0.0000  0.00000  0.00000  0.0000  35.000 0.0000 0.00000 0.00000  0.0000  0.0000 0
   3 JX1T35KV     1   1  0 1.0459  -0.09   0.0000  0.00000  0.00000  0.0000  35.000 0.0000 0.00000 0.00000  0.0000  0.0000 0
   5 MT1T35KV     1   1  0 1.0447  -0.09   0.0000  0.00000  0.00000  0.0000  35.000 0.0000 0.00000 0.00000  0.0000  0.0000 0
   7 QC1T35KV     1   1  0 1.0517  -0.07   0.0000  0.00000  0.00000  0.0000  35.000 0.0000 0.00000 0.00000  0.0000  0.0000 0
   9 SJ2T35KV     1   1  0 1.0580  -0.06   5.7000  1.62412  0.00000  4.0000  35.000 0.0000 0.00000 0.00000  0.0000  0.0000 0
  10 SJ2T220KV    1   1  3 1.0439  0.000   0.0000  0.00000  44.8946  -8.930  220.00 0.0000 0.00000 0.00000  0.0000  0.0000 0
  11 SJ2T110KV    1   1  0 1.0452  -0.05   13.466  -10.733  0.00000  0.0000  110.00 0.0000 0.00000 0.00000  0.0000  0.0000 0
  12 SJ2TC        1   1  0 1.0503  -0.03   0.0000  0.00000  0.00000  0.0000  100.00 0.0000 0.00000 0.00000  0.0000  0.0000 0
   2 CQ2T10KV     1   1  0 1.0499  -0.09   4.5666  1.66666  0.00000  3.0000  10.000 0.0000 999.000 -999.00  0.0000  0.0000 0
   4 JX1T10KV     1   1  0 1.0235  -0.14   11.233  3.00000  0.00000  3.0000  10.000 0.0000 999.000 -999.00  0.0000  0.0000 0
   6 MT1T10KV     1   1  0 1.0365  -0.11   3.0000  3.50000  0.00000  3.0000  10.000 0.0000 999.000 -999.00  0.0000  0.0000 0
   8 QC1T10KV     1   1  0 1.0432  -0.11   6.7000  3.60000  0.00000  3.0000  10.000 0.0000 999.000 -999.00  0.0000  0.0000 0
-999
BRANCH DATA FOLLOWS                    11 ITEMS
  10   12 1 1   0 2  0.000900  0.073800   0.00000  0     0     1    0    0  1.0000  0.00   0.0000 0.00000 0.0000 0.0000 0.00000
   1    2 1 1   0 2  0.019100  .4990000   0.00000  0     0     0    0    0  1.0128  0.00   0.0000 0.00000 0.0000 0.0000 0.00000
   3    4 1 1   0 2  0.019300  .4145000   0.00000  0     0     0    0    0  1.0188  0.00   0.0000 0.00000 0.0000 0.0000 0.00000
   5    6 1 1   0 2  0.019100  .4980000   0.00000  0     0     0    0    0  1.0049  0.00   0.0000 0.00000 0.0000 0.0000 0.00000
   7    8 1 1   0 2  0.019200  .4990000   0.00000  0     0     0    0    0  1.0037  0.00   0.0000 0.00000 0.0000 0.0000 0.00000
   1    9 1 1   0 0  0.066600  .2543000   0.00020  0     0     0    0    0  0.0000  0.00   0.0000 0.00000 0.0000 0.0000 0.00000
   3    9 1 1   0 0  0.066600  .2543000   0.00020  0     0     0    0    0  0.0000  0.00   0.0000 0.00000 0.0000 0.0000 0.00000
   5    3 1 1   0 0  0.028700  0.077700   0.00020  0     0     0    0    0  0.0000  0.00   0.0000 0.00000 0.0000 0.0000 0.00000
   7    9 1 1   0 0  0.066600  .2543000   0.00020  0     0     0    0    0  0.0000  0.00   0.0000 0.00000 0.0000 0.0000 0.00000
   9   12 1 1   0 2  0.000800  .1216000   0.00000  0     0     1    0    0  1.0068  0.00   0.0000 0.00000 0.0000 0.0000 0.00000
  11   12 1 1   0 2  0.000000  .2000000   0.00000  0     0     1    0    0  .97674  0.00   0.0000 0.00000 0.0000 0.0000 0.00000
-999
LOSS ZONES FOLLOWS   0 ITEMS
-99
INTERCHANGE DATA FOLLOWS      0 ITEMS
-9
TIE LINES FOLLOWS             0ITEMS
-999
END OF DATA